data_global
_cell_length_a 10.0000000000
_cell_length_b 10.0000000000
_cell_length_c 10.0000000000
_cell_angle_alpha 90.0000000000
_cell_angle_beta 90.0000000000
_cell_angle_gamma 90.0000000000
_symmetry_space_group_name_H-M 'P 1'
loop_
_atom_site_label
_atom_site_fract_x
_atom_site_fract_y
_atom_site_fract_z
O   0.0000000000 -0.0716005890 0.0000000000
H   0.0000000000 -0.0141997050 0.0778494560
H   0.0000000000 -0.0141997050 -0.0778494560
